Version 4
SHEET 1 880 680
WIRE 224 -32 224 -48
WIRE 544 -32 224 -32
WIRE 224 -16 224 -32
WIRE 544 -16 544 -32
WIRE 544 96 544 64
WIRE 544 112 544 96
WIRE -192 144 -192 112
WIRE -64 160 -96 160
WIRE -16 160 -64 160
WIRE 224 160 224 64
WIRE 224 160 176 160
WIRE 336 160 304 160
WIRE 480 160 336 160
WIRE -96 192 -96 160
WIRE 336 192 336 160
WIRE -192 208 -192 176
WIRE -96 256 -96 224
WIRE -64 256 -96 256
WIRE -16 256 -64 256
WIRE 208 256 176 256
WIRE -64 304 -64 256
WIRE 208 304 208 256
WIRE 336 304 336 256
WIRE 544 304 544 208
FLAG 336 304 0
FLAG -64 304 0
FLAG 544 304 0
FLAG 208 304 0
FLAG 224 -48 VCC
FLAG -192 112 VCC
FLAG -192 208 0
FLAG -64 160 OBJETO
FLAG 544 96 Vout
SYMBOL OptoElec\\4n35 80 208 R0
SYMATTR InstName U1
SYMBOL res 320 144 R90
WINDOW 0 0 56 VBottom 2
WINDOW 3 32 56 VTop 2
SYMATTR InstName R1
SYMATTR Value 1k
SYMBOL cap 320 192 R0
SYMATTR InstName C1
SYMATTR Value 100n
SYMBOL res 208 -32 R0
SYMATTR InstName R2
SYMATTR Value 1k
SYMBOL npn 480 112 R0
SYMATTR InstName Q1
SYMATTR Value 2N2222
SYMBOL res 528 -32 R0
SYMATTR InstName R3
SYMATTR Value 1k
SYMBOL MiniSyms4\\signal- -96 208 R0
WINDOW 3 47 8 Invisible 2
WINDOW 123 0 0 Left 2
WINDOW 39 0 0 Left 2
SYMATTR Value PULSE(0 5 0 0 0 0.005 0.01)
SYMATTR InstName V1
SYMBOL MiniSyms4\\voltage- -192 160 R0
WINDOW 123 0 0 Left 2
WINDOW 39 0 0 Left 2
SYMATTR InstName V2
SYMATTR Value 5
TEXT -222 328 Left 2 !.tran 1
